#-----------------------------------------------------------------------------
[Config Wireless01]
description = Two hosts communicating wirelessly
network = WirelessA
sim-time-limit = 20s

*.host*.ipv4.arp.typename = "GlobalArp"

*.hostA.numApps = 1
*.hostA.app[0].typename = "UdpBasicApp"
*.hostA.app[0].destAddresses = "hostB"
*.hostA.app[0].destPort = 5000
*.hostA.app[0].messageLength = 1000B
*.hostA.app[0].sendInterval = exponential(12ms)
*.hostA.app[0].packetName = "UDPData"

*.hostB.numApps = 1
*.hostB.app[0].typename = "UdpSink"
*.hostB.app[0].localPort = 5000

*.host*.wlan[0].typename = "AckingWirelessInterface"
*.host*.wlan[0].mac.useAck = false
*.host*.wlan[0].mac.fullDuplex = false
*.host*.wlan[0].radio.transmitter.communicationRange = 500m
*.host*.wlan[0].radio.receiver.ignoreInterference = true
*.host*.wlan[0].mac.headerLength = 23B

*.host*.**.bitrate = 1Mbps

#-----------------------------------------------------------------------------
[Config Wireless02]
description = Setting up some animations
extends = Wireless01

*.hostA.wlan[0].radio.displayCommunicationRange = true

*.visualizer.sceneVisualizer.descriptionFigure = "title"

*.visualizer.mediumVisualizer.displaySignals = true

*.visualizer.physicalLinkVisualizer.displayLinks = true
*.visualizer.physicalLinkVisualizer.packetFilter = "UDPData*"

#-----------------------------------------------------------------------------
[Config Wireless03]
description = Adding more nodes and decreasing the communication range
extends = Wireless02
network = WirelessB

*.host*.wlan[0].radio.transmitter.communicationRange = 250m

*.hostR1.wlan[0].radio.displayCommunicationRange = true

#-----------------------------------------------------------------------------
[Config Wireless04]
description = Setting up static routing
extends = Wireless03

*.host*.forwarding = true

*.configurator.config = xml("<config><interface hosts='**' address='10.0.0.x' netmask='255.255.255.0'/><autoroute metric='errorRate'/></config>")
*.configurator.optimizeRoutes = false
*.host*.ipv4.routingTable.netmaskRoutes = ""

*.visualizer.physicalLinkVisualizer.displayLinks = true
*.visualizer.dataLinkVisualizer.displayLinks = true
*.visualizer.networkRouteVisualizer.displayRoutes = true
*.visualizer.*LinkVisualizer.lineShift = 0
*.visualizer.networkRouteVisualizer.lineShift = 0
*.visualizer.networkRouteVisualizer.packetFilter = "UDPData*"