<configuration>
    <input>
        <net-file value="intersection.net.xml"/>
        <route-files value="intersection.rou.xml"/>
        <additional-files value="intersection.poly.xml"/>
    </input>
    <time>
        <begin value="0"/>
        <end value="100"/>
        <step-length value="0.1"/>
    </time>
    <processing>
        <collision.action value="warn"/>
        <collision.check-junctions value="true"/> 
    </processing>
</configuration>