<?xml version="1.0" encoding="UTF-8"?>

<!-- generated on 2026-01-16 08:59:04 by Eclipse SUMO netconvert Version 1.18.0
<configuration xmlns:xsi="http://www.w3.org/2001/XMLSchema-instance" xsi:noNamespaceSchemaLocation="http://sumo.dlr.de/xsd/netconvertConfiguration.xsd">

    <input>
        <node-files value="intersection.nod.xml"/>
        <edge-files value="intersection.edg.xml"/>
    </input>

    <output>
        <output-file value="intersection.net.xml"/>
    </output>

</configuration>
-->

<net version="1.16" junctionCornerDetail="5" limitTurnSpeed="5.50" xmlns:xsi="http://www.w3.org/2001/XMLSchema-instance" xsi:noNamespaceSchemaLocation="http://sumo.dlr.de/xsd/net_file.xsd">

    <location netOffset="100.00,100.00" convBoundary="0.00,0.00,200.00,200.00" origBoundary="-100.00,-100.00,100.00,100.00" projParameter="!"/>

    <edge id=":center_0" function="internal">
        <lane id=":center_0_0" index="0" speed="6.51" length="9.03" shape="98.40,107.20 98.05,104.75 97.00,103.00 95.25,101.95 92.80,101.60"/>
    </edge>
    <edge id=":center_1" function="internal">
        <lane id=":center_1_0" index="0" speed="13.89" length="11.20" shape="98.40,107.20 98.40,96.00"/>
    </edge>
    <edge id=":center_2" function="internal">
        <lane id=":center_2_0" index="0" speed="13.89" length="11.20" shape="104.00,101.60 92.80,101.60"/>
    </edge>
    <edge id=":center_3" function="internal">
        <lane id=":center_3_0" index="0" speed="6.51" length="4.11" shape="104.00,101.60 101.55,101.25 100.15,100.41"/>
    </edge>
    <edge id=":center_4" function="internal">
        <lane id=":center_4_0" index="0" speed="6.51" length="4.93" shape="100.15,100.41 99.80,100.20 98.75,98.45 98.40,96.00"/>
    </edge>

    <edge id="C2S" from="center" to="S" priority="2">
        <lane id="C2S_0" index="0" speed="13.89" length="96.00" shape="98.40,96.00 98.40,0.00"/>
    </edge>
    <edge id="C2W" from="center" to="W" priority="2">
        <lane id="C2W_0" index="0" speed="13.89" length="92.80" shape="92.80,101.60 0.00,101.60"/>
    </edge>
    <edge id="E2C" from="E" to="center" priority="2">
        <lane id="E2C_0" index="0" speed="13.89" length="96.00" shape="200.00,101.60 104.00,101.60"/>
    </edge>
    <edge id="N2C" from="N" to="center" priority="2">
        <lane id="N2C_0" index="0" speed="13.89" length="92.80" shape="98.40,200.00 98.40,107.20"/>
    </edge>

    <junction id="E" type="dead_end" x="200.00" y="100.00" incLanes="" intLanes="" shape="200.00,100.00 200.00,103.20"/>
    <junction id="N" type="dead_end" x="100.00" y="200.00" incLanes="" intLanes="" shape="100.00,200.00 96.80,200.00"/>
    <junction id="S" type="dead_end" x="100.00" y="0.00" incLanes="C2S_0" intLanes="" shape="96.80,0.00 100.00,0.00"/>
    <junction id="W" type="dead_end" x="0.00" y="100.00" incLanes="C2W_0" intLanes="" shape="0.00,103.20 0.00,100.00"/>
    <junction id="center" type="priority" x="100.00" y="100.00" incLanes="N2C_0 E2C_0" intLanes=":center_0_0 :center_1_0 :center_2_0 :center_4_0" shape="96.80,107.20 100.00,107.20 100.44,104.98 101.00,104.20 101.78,103.64 102.78,103.31 104.00,103.20 104.00,100.00 101.78,99.56 101.00,99.00 100.44,98.22 100.11,97.22 100.00,96.00 96.80,96.00 96.36,98.22 95.80,99.00 95.02,99.56 94.02,99.89 92.80,100.00 92.80,103.20 95.02,103.64 95.80,104.20 96.36,104.98 96.69,105.98">
        <request index="0" response="0000" foes="0100" cont="0"/>
        <request index="1" response="0000" foes="1100" cont="0"/>
        <request index="2" response="0011" foes="0011" cont="0"/>
        <request index="3" response="0010" foes="0010" cont="1"/>
    </junction>

    <junction id=":center_4_0" type="internal" x="100.15" y="100.41" incLanes=":center_3_0 N2C_0" intLanes=":center_1_0"/>

    <connection from="E2C" to="C2W" fromLane="0" toLane="0" via=":center_2_0" dir="s" state="m"/>
    <connection from="E2C" to="C2S" fromLane="0" toLane="0" via=":center_3_0" dir="l" state="m"/>
    <connection from="N2C" to="C2W" fromLane="0" toLane="0" via=":center_0_0" dir="r" state="M"/>
    <connection from="N2C" to="C2S" fromLane="0" toLane="0" via=":center_1_0" dir="s" state="M"/>

    <connection from=":center_0" to="C2W" fromLane="0" toLane="0" dir="r" state="M"/>
    <connection from=":center_1" to="C2S" fromLane="0" toLane="0" dir="s" state="M"/>
    <connection from=":center_2" to="C2W" fromLane="0" toLane="0" dir="s" state="M"/>
    <connection from=":center_3" to="C2S" fromLane="0" toLane="0" via=":center_4_0" dir="l" state="m"/>
    <connection from=":center_4" to="C2S" fromLane="0" toLane="0" dir="l" state="M"/>

</net>
