<nodes>
   <node id="center" x="0.0" y="0.0" type="priority"/>

   <node id="N" x="0.0" y="100.0" />
   <node id="S" x="0.0" y="-100.0" />
   <node id="E" x="100.0" y="0.0" />
   <node id="W" x="-100.0" y="0.0" />
</nodes>