<?xml version="1.0" encoding="UTF-8"?>

<!-- generated on 2025-12-31 05:16:31 by Eclipse SUMO netconvert Version 1.18.0
<configuration xmlns:xsi="http://www.w3.org/2001/XMLSchema-instance" xsi:noNamespaceSchemaLocation="http://sumo.dlr.de/xsd/netconvertConfiguration.xsd">

    <input>
        <osm-files value="home.osm"/>
    </input>

    <output>
        <output-file value="home.net.xml"/>
    </output>

    <projection>
        <proj.utm value="true"/>
    </projection>

    <processing>
        <geometry.remove value="true"/>
        <roundabouts.guess value="true"/>
    </processing>

    <tls_building>
        <tls.discard-simple value="true"/>
        <tls.join value="true"/>
        <tls.guess-signals value="true"/>
    </tls_building>

    <ramp_guessing>
        <ramps.guess value="true"/>
    </ramp_guessing>

    <junctions>
        <junctions.join value="true"/>
    </junctions>

</configuration>
-->

<net version="1.16" junctionCornerDetail="5" limitTurnSpeed="5.50" xmlns:xsi="http://www.w3.org/2001/XMLSchema-instance" xsi:noNamespaceSchemaLocation="http://sumo.dlr.de/xsd/net_file.xsd">

    <location netOffset="-413359.45,-1434834.30" convBoundary="0.00,0.00,1069.90,1146.68" origBoundary="80.201106,12.977986,80.210983,12.988338" projParameter="+proj=utm +zone=44 +ellps=WGS84 +datum=WGS84 +units=m +no_defs"/>

    <type id="highway.footway" priority="1" numLanes="1" speed="2.78" allow="pedestrian" oneway="1" width="2.00"/>
    <type id="highway.residential" priority="3" numLanes="1" speed="13.89" disallow="tram rail_urban rail rail_electric rail_fast ship" oneway="0"/>
    <type id="highway.service" priority="1" numLanes="1" speed="5.56" allow="pedestrian delivery bicycle" oneway="0"/>
    <type id="highway.tertiary" priority="10" numLanes="1" speed="22.22" disallow="tram rail_urban rail rail_electric rail_fast ship" oneway="0"/>

    <edge id=":11059326341_0" function="internal">
        <lane id=":11059326341_0_0" index="0" allow="pedestrian delivery bicycle" speed="3.65" length="4.67" shape="864.56,578.09 863.72,579.26 862.91,579.64 862.12,579.21 861.36,577.99"/>
    </edge>
    <edge id=":11059326342_0" function="internal">
        <lane id=":11059326342_0_0" index="0" allow="pedestrian delivery bicycle" speed="5.08" length="5.03" shape="827.66,596.61 826.28,596.77 825.28,597.33 824.66,598.28 824.41,599.62"/>
    </edge>
    <edge id=":11059326342_1" function="internal">
        <lane id=":11059326342_1_0" index="0" allow="pedestrian delivery bicycle" speed="5.56" length="10.19" shape="827.66,596.61 824.90,596.15 822.96,594.93 821.82,592.93 821.50,590.15"/>
    </edge>
    <edge id=":11059326342_2" function="internal">
        <lane id=":11059326342_2_0" index="0" allow="pedestrian delivery bicycle" speed="3.65" length="4.67" shape="827.66,596.61 826.48,595.78 826.09,594.97 826.51,594.18 827.73,593.41"/>
    </edge>
    <edge id=":11059326342_3" function="internal">
        <lane id=":11059326342_3_0" index="0" allow="pedestrian delivery bicycle" speed="5.03" length="5.01" shape="824.70,590.24 824.86,591.60 825.42,592.58 826.37,593.18 827.73,593.41"/>
    </edge>
    <edge id=":11059326342_4" function="internal">
        <lane id=":11059326342_4_0" index="0" allow="pedestrian delivery bicycle" speed="5.56" length="9.39" shape="824.70,590.24 824.41,599.62"/>
    </edge>
    <edge id=":11059326342_5" function="internal">
        <lane id=":11059326342_5_0" index="0" allow="pedestrian delivery bicycle" speed="3.65" length="4.67" shape="824.70,590.24 823.87,591.41 823.06,591.79 822.27,591.37 821.50,590.15"/>
    </edge>
    <edge id=":11059326342_6" function="internal">
        <lane id=":11059326342_6_0" index="0" allow="pedestrian delivery bicycle" speed="5.56" length="9.36" shape="821.22,599.51 821.50,590.15"/>
    </edge>
    <edge id=":11059326342_7" function="internal">
        <lane id=":11059326342_7_0" index="0" allow="pedestrian delivery bicycle" speed="5.56" length="10.14" shape="821.22,599.51 821.70,596.79 822.95,594.87 824.96,593.74 827.73,593.41"/>
    </edge>
    <edge id=":11059326342_8" function="internal">
        <lane id=":11059326342_8_0" index="0" allow="pedestrian delivery bicycle" speed="3.65" length="4.67" shape="821.22,599.51 822.06,598.33 822.87,597.96 823.66,598.39 824.41,599.62"/>
    </edge>
    <edge id=":11059326343_0" function="internal">
        <lane id=":11059326343_0_0" index="0" allow="pedestrian delivery bicycle" speed="3.65" length="4.67" shape="844.20,593.74 845.38,594.57 845.76,595.37 845.35,596.17 844.13,596.94"/>
    </edge>
    <edge id=":11059326344_0" function="internal">
        <lane id=":11059326344_0_0" index="0" allow="pedestrian delivery bicycle" speed="3.65" length="4.67" shape="882.31,597.65 881.13,596.83 880.74,596.02 881.15,595.23 882.37,594.45"/>
    </edge>
    <edge id=":11059326346_0" function="internal">
        <lane id=":11059326346_0_0" index="0" allow="pedestrian delivery bicycle" speed="5.56" length="9.40" shape="866.72,638.77 857.33,638.42"/>
    </edge>
    <edge id=":11059326346_1" function="internal">
        <lane id=":11059326346_1_0" index="0" allow="pedestrian delivery bicycle" speed="5.56" length="10.19" shape="866.72,638.77 863.97,638.27 862.05,637.01 860.95,634.99 860.67,632.21"/>
    </edge>
    <edge id=":11059326346_2" function="internal">
        <lane id=":11059326346_2_0" index="0" allow="pedestrian delivery bicycle" speed="3.65" length="4.67" shape="866.72,638.77 865.55,637.92 865.18,637.11 865.61,636.33 866.84,635.57"/>
    </edge>
    <edge id=":11059326346_3" function="internal">
        <lane id=":11059326346_3_0" index="0" allow="pedestrian delivery bicycle" speed="5.03" length="5.01" shape="863.87,632.35 864.00,633.71 864.54,634.71 865.49,635.33 866.84,635.57"/>
    </edge>
    <edge id=":11059326346_4" function="internal">
        <lane id=":11059326346_4_0" index="0" allow="pedestrian delivery bicycle" speed="5.56" length="10.16" shape="863.87,632.35 863.36,635.09 862.10,637.02 860.09,638.13 857.33,638.42"/>
    </edge>
    <edge id=":11059326346_5" function="internal">
        <lane id=":11059326346_5_0" index="0" allow="pedestrian delivery bicycle" speed="3.65" length="4.67" shape="863.87,632.35 863.02,633.51 862.20,633.88 861.42,633.44 860.67,632.21"/>
    </edge>
    <edge id=":11059326346_6" function="internal">
        <lane id=":11059326346_6_0" index="0" allow="pedestrian delivery bicycle" speed="5.06" length="5.02" shape="857.45,635.22 858.81,635.07 859.80,634.53 860.42,633.57 860.67,632.21"/>
    </edge>
    <edge id=":11059326346_7" function="internal">
        <lane id=":11059326346_7_0" index="0" allow="pedestrian delivery bicycle" speed="5.56" length="9.40" shape="857.45,635.22 866.84,635.57"/>
    </edge>
    <edge id=":11059326346_8" function="internal">
        <lane id=":11059326346_8_0" index="0" allow="pedestrian delivery bicycle" speed="3.65" length="4.67" shape="857.45,635.22 858.62,636.06 858.99,636.88 858.56,637.66 857.33,638.42"/>
    </edge>
    <edge id=":11059326347_0" function="internal">
        <lane id=":11059326347_0_0" index="0" allow="pedestrian delivery bicycle" speed="3.65" length="4.67" shape="861.35,616.34 862.20,615.18 863.02,614.81 863.80,615.25 864.55,616.48"/>
    </edge>
    <edge id=":11059326364_0" function="internal">
        <lane id=":11059326364_0_0" index="0" disallow="tram rail_urban rail rail_electric rail_fast ship" speed="6.64" length="9.20" shape="914.13,489.27 911.60,489.65 909.78,490.71 908.66,492.45 908.25,494.89"/>
    </edge>
    <edge id=":11059326364_1" function="internal">
        <lane id=":11059326364_1_0" index="0" disallow="tram rail_urban rail rail_electric rail_fast ship" speed="7.94" length="14.32" shape="914.13,489.27 910.22,488.76 907.45,487.11 905.83,484.33 905.35,480.42"/>
    </edge>
    <edge id=":11059326364_2" function="internal">
        <lane id=":11059326364_2_0" index="0" disallow="tram rail_urban rail rail_electric rail_fast ship" speed="3.65" length="4.67" shape="914.13,489.27 912.92,488.48 912.51,487.69 912.90,486.88 914.09,486.07"/>
    </edge>
    <edge id=":11059326364_3" function="internal">
        <lane id=":11059326364_3_0" index="0" disallow="tram rail_urban rail rail_electric rail_fast ship" speed="6.44" length="9.03" shape="908.55,480.48 908.85,482.95 909.88,484.71 911.62,485.75 914.09,486.07"/>
    </edge>
    <edge id=":11059326364_4" function="internal">
        <lane id=":11059326364_4_0" index="0" disallow="tram rail_urban rail rail_electric rail_fast ship" speed="13.89" length="14.40" shape="908.55,480.48 908.25,494.89"/>
    </edge>
    <edge id=":11059326364_5" function="internal">
        <lane id=":11059326364_5_0" index="0" disallow="tram rail_urban rail rail_electric rail_fast ship" speed="3.65" length="1.44" shape="908.55,480.48 907.73,481.67"/>
    </edge>
    <edge id=":11059326364_9" function="internal">
        <lane id=":11059326364_9_0" index="0" disallow="tram rail_urban rail rail_electric rail_fast ship" speed="3.65" length="3.23" shape="907.73,481.67 906.92,482.05 906.13,481.63 905.35,480.42"/>
    </edge>
    <edge id=":11059326364_6" function="internal">
        <lane id=":11059326364_6_0" index="0" disallow="tram rail_urban rail rail_electric rail_fast ship" speed="13.89" length="14.40" shape="905.05,494.82 905.35,480.42"/>
    </edge>
    <edge id=":11059326364_7" function="internal">
        <lane id=":11059326364_7_0" index="0" disallow="tram rail_urban rail rail_electric rail_fast ship" speed="8.11" length="4.01" shape="905.05,494.82 905.68,491.03 905.77,490.89"/>
    </edge>
    <edge id=":11059326364_8" function="internal">
        <lane id=":11059326364_8_0" index="0" disallow="tram rail_urban rail rail_electric rail_fast ship" speed="3.65" length="1.44" shape="905.05,494.82 905.87,493.63"/>
    </edge>
    <edge id=":11059326364_10" function="internal">
        <lane id=":11059326364_10_0" index="0" disallow="tram rail_urban rail rail_electric rail_fast ship" speed="8.11" length="10.23" shape="905.77,490.89 907.40,488.31 910.20,486.66 914.09,486.07"/>
    </edge>
    <edge id=":11059326364_11" function="internal">
        <lane id=":11059326364_11_0" index="0" disallow="tram rail_urban rail rail_electric rail_fast ship" speed="3.65" length="3.23" shape="905.87,493.63 906.68,493.25 907.47,493.67 908.25,494.89"/>
    </edge>
    <edge id=":11059326365_0" function="internal">
        <lane id=":11059326365_0_0" index="0" disallow="tram rail_urban rail rail_electric rail_fast ship" speed="3.65" length="4.67" shape="957.11,485.53 958.32,486.31 958.73,487.11 958.34,487.91 957.15,488.73"/>
    </edge>
    <edge id=":11189869567_0" function="internal">
        <lane id=":11189869567_0_0" index="0" disallow="tram rail_urban rail rail_electric rail_fast ship" speed="3.65" length="4.67" shape="247.40,583.70 246.07,583.13 245.53,582.42 245.78,581.56 246.81,580.55"/>
    </edge>
    <edge id=":11189869568_0" function="internal">
        <lane id=":11189869568_0_0" index="0" disallow="tram rail_urban rail rail_electric rail_fast ship" speed="3.65" length="4.67" shape="336.70,453.49 337.40,452.23 338.16,451.76 338.99,452.08 339.89,453.21"/>
    </edge>
    <edge id=":11259108491_0" function="internal">
        <lane id=":11259108491_0_0" index="0" allow="pedestrian delivery bicycle" speed="5.56" length="8.73" shape="501.15,363.60 498.72,364.50 497.06,365.22 495.62,366.25 493.85,368.09"/>
    </edge>
    <edge id=":11259108491_1" function="internal">
        <lane id=":11259108491_1_0" index="0" allow="pedestrian delivery bicycle" speed="6.72" length="11.26" shape="501.15,363.60 498.05,364.32 495.66,363.80 493.99,362.02 493.02,358.98"/>
    </edge>
    <edge id=":11259108491_2" function="internal">
        <lane id=":11259108491_2_0" index="0" allow="pedestrian delivery bicycle" speed="3.65" length="4.67" shape="501.15,363.60 499.74,363.29 499.08,362.69 499.16,361.80 499.98,360.62"/>
    </edge>
    <edge id=":11259108491_3" function="internal">
        <lane id=":11259108491_3_0" index="0" allow="pedestrian delivery bicycle" speed="4.85" length="5.27" shape="496.18,358.46 496.63,359.88 497.41,360.71 498.53,360.96 499.98,360.62"/>
    </edge>
    <edge id=":11259108491_4" function="internal">
        <lane id=":11259108491_4_0" index="0" allow="pedestrian delivery bicycle" speed="9.72" length="10.24" shape="496.18,358.46 496.40,361.26 496.08,363.79 495.23,366.07 493.85,368.09"/>
    </edge>
    <edge id=":11259108491_5" function="internal">
        <lane id=":11259108491_5_0" index="0" disallow="tram rail_urban rail rail_electric rail_fast ship" speed="3.65" length="4.67" shape="496.18,358.46 495.59,359.77 494.86,360.30 494.01,360.04 493.02,358.98"/>
    </edge>
    <edge id=":11259108491_6" function="internal">
        <lane id=":11259108491_6_0" index="0" allow="pedestrian delivery bicycle" speed="9.66" length="10.06" shape="489.59,368.10 491.36,365.75 492.53,363.45 493.08,361.19 493.02,358.98"/>
    </edge>
    <edge id=":11259108491_7" function="internal">
        <lane id=":11259108491_7_0" index="0" allow="pedestrian delivery bicycle" speed="5.56" length="12.96" shape="489.59,368.10 491.95,365.60 494.27,363.63 496.86,362.03 499.98,360.62"/>
    </edge>
    <edge id=":11259108491_8" function="internal">
        <lane id=":11259108491_8_0" index="0" allow="pedestrian delivery bicycle" speed="4.04" length="6.23" shape="489.59,368.10 490.65,366.50 491.71,365.97 492.78,366.49 493.85,368.09"/>
    </edge>
    <edge id=":11259108498_0" function="internal">
        <lane id=":11259108498_0_0" index="0" allow="pedestrian delivery bicycle" speed="5.56" length="9.40" shape="520.23,400.03 511.00,401.79"/>
    </edge>
    <edge id=":11259108498_1" function="internal">
        <lane id=":11259108498_1_0" index="0" allow="pedestrian delivery bicycle" speed="5.56" length="10.17" shape="520.23,400.03 517.49,400.15 515.34,399.35 513.78,397.63 512.83,394.99"/>
    </edge>
    <edge id=":11259108498_2" function="internal">
        <lane id=":11259108498_2_0" index="0" allow="pedestrian delivery bicycle" speed="3.65" length="4.67" shape="520.23,400.03 518.90,399.47 518.36,398.76 518.61,397.90 519.64,396.89"/>
    </edge>
    <edge id=":11259108498_3" function="internal">
        <lane id=":11259108498_3_0" index="0" allow="pedestrian delivery bicycle" speed="5.11" length="5.09" shape="515.96,394.33 516.44,395.66 517.21,396.53 518.28,396.94 519.64,396.89"/>
    </edge>
    <edge id=":11259108498_4" function="internal">
        <lane id=":11259108498_4_0" index="0" allow="pedestrian delivery bicycle" speed="5.56" length="10.27" shape="515.96,394.33 516.15,397.14 515.38,399.32 513.67,400.87 511.00,401.79"/>
    </edge>
    <edge id=":11259108498_5" function="internal">
        <lane id=":11259108498_5_0" index="0" allow="pedestrian delivery bicycle" speed="3.65" length="4.67" shape="515.96,394.33 515.42,395.67 514.72,396.22 513.86,396.00 512.83,394.99"/>
    </edge>
    <edge id=":11259108498_6" function="internal">
        <lane id=":11259108498_6_0" index="0" allow="pedestrian delivery bicycle" speed="5.02" length="5.03" shape="510.40,398.64 511.71,398.20 512.55,397.44 512.92,396.37 512.83,394.99"/>
    </edge>
    <edge id=":11259108498_7" function="internal">
        <lane id=":11259108498_7_0" index="0" allow="pedestrian delivery bicycle" speed="5.56" length="9.40" shape="510.40,398.64 519.64,396.89"/>
    </edge>
    <edge id=":11259108498_8" function="internal">
        <lane id=":11259108498_8_0" index="0" allow="pedestrian delivery bicycle" speed="3.65" length="4.67" shape="510.40,398.64 511.73,399.21 512.27,399.92 512.03,400.78 511.00,401.79"/>
    </edge>
    <edge id=":11259108499_0" function="internal">
        <lane id=":11259108499_0_0" index="0" allow="pedestrian delivery bicycle" speed="4.88" length="5.21" shape="506.46,365.10 505.95,363.73 505.14,362.93 504.02,362.69 502.60,363.03"/>
    </edge>
    <edge id=":11259108499_1" function="internal">
        <lane id=":11259108499_1_0" index="0" allow="pedestrian delivery bicycle" speed="5.56" length="10.29" shape="506.46,365.10 506.18,362.14 506.72,359.73 508.10,357.89 510.29,356.60"/>
    </edge>
    <edge id=":11259108499_2" function="internal">
        <lane id=":11259108499_2_0" index="0" allow="pedestrian delivery bicycle" speed="3.65" length="4.67" shape="506.46,365.10 506.99,363.76 507.69,363.21 508.55,363.43 509.59,364.44"/>
    </edge>
    <edge id=":11259108499_3" function="internal">
        <lane id=":11259108499_3_0" index="0" allow="pedestrian delivery bicycle" speed="5.56" length="5.71" shape="511.44,359.58 510.33,360.27 509.64,361.31 509.40,362.70 509.59,364.44"/>
    </edge>
    <edge id=":11259108499_4" function="internal">
        <lane id=":11259108499_4_0" index="0" allow="pedestrian delivery bicycle" speed="5.56" length="9.49" shape="511.44,359.58 502.60,363.03"/>
    </edge>
    <edge id=":11259108499_5" function="internal">
        <lane id=":11259108499_5_0" index="0" allow="pedestrian delivery bicycle" speed="3.65" length="4.67" shape="511.44,359.58 510.04,359.27 509.38,358.67 509.46,357.78 510.29,356.60"/>
    </edge>
    <edge id=":11259108499_6" function="internal">
        <lane id=":11259108499_6_0" index="0" allow="pedestrian delivery bicycle" speed="5.56" length="9.51" shape="501.43,360.05 510.29,356.60"/>
    </edge>
    <edge id=":11259108499_7" function="internal">
        <lane id=":11259108499_7_0" index="0" allow="pedestrian delivery bicycle" speed="5.56" length="11.01" shape="501.43,360.05 504.44,359.34 506.80,359.84 508.52,361.54 509.59,364.44"/>
    </edge>
    <edge id=":11259108499_8" function="internal">
        <lane id=":11259108499_8_0" index="0" allow="pedestrian delivery bicycle" speed="3.65" length="4.67" shape="501.43,360.05 502.84,360.36 503.50,360.95 503.42,361.85 502.60,363.03"/>
    </edge>
    <edge id=":11329022596_0" function="internal">
        <lane id=":11329022596_0_0" index="0" disallow="tram rail_urban rail rail_electric rail_fast ship" speed="3.65" length="4.67" shape="537.40,691.71 538.68,692.36 539.18,693.10 538.88,693.95 537.79,694.89"/>
    </edge>
    <edge id=":11601420881_0" function="internal">
        <lane id=":11601420881_0_0" index="0" disallow="tram rail_urban rail rail_electric rail_fast ship" speed="7.01" length="9.75" shape="332.74,107.01 332.01,104.67 330.60,103.02 328.49,102.07 325.69,101.81"/>
    </edge>
    <edge id=":11601420881_1" function="internal">
        <lane id=":11601420881_1_0" index="0" disallow="tram rail_urban rail rail_electric rail_fast ship" speed="22.22" length="14.51" shape="332.74,107.01 332.16,103.38 331.55,99.85 331.06,96.30 330.81,92.64"/>
    </edge>
    <edge id=":11601420881_2" function="internal">
        <lane id=":11601420881_2_0" index="0" disallow="tram rail_urban rail rail_electric rail_fast ship" speed="3.65" length="1.44" shape="332.74,107.01 333.36,105.71"/>
    </edge>
    <edge id=":11601420881_9" function="internal">
        <lane id=":11601420881_9_0" index="0" disallow="tram rail_urban rail rail_electric rail_fast ship" speed="3.65" length="3.23" shape="333.36,105.71 334.10,105.21 334.95,105.49 335.90,106.57"/>
    </edge>
    <edge id=":11601420881_3" function="internal">
        <lane id=":11601420881_3_0" index="0" disallow="tram rail_urban rail rail_electric rail_fast ship" speed="22.22" length="14.63" shape="334.00,92.07 334.25,95.75 334.73,99.34 335.33,102.92 335.90,106.57"/>
    </edge>
    <edge id=":11601420881_4" function="internal">
        <lane id=":11601420881_4_0" index="0" disallow="tram rail_urban rail rail_electric rail_fast ship" speed="8.12" length="4.20" shape="334.00,92.07 333.56,96.24"/>
    </edge>
    <edge id=":11601420881_5" function="internal">
        <lane id=":11601420881_5_0" index="0" disallow="tram rail_urban rail rail_electric rail_fast ship" speed="3.67" length="1.46" shape="334.00,92.07 333.42,93.41"/>
    </edge>
    <edge id=":11601420881_10" function="internal">
        <lane id=":11601420881_10_0" index="0" disallow="tram rail_urban rail rail_electric rail_fast ship" speed="8.12" length="10.37" shape="333.56,96.24 332.02,99.26 329.40,101.11 325.69,101.81"/>
    </edge>
    <edge id=":11601420881_11" function="internal">
        <lane id=":11601420881_11_0" index="0" disallow="tram rail_urban rail rail_electric rail_fast ship" speed="3.67" length="3.27" shape="333.42,93.41 332.69,93.95 331.82,93.69 330.81,92.64"/>
    </edge>
    <edge id=":11601420881_6" function="internal">
        <lane id=":11601420881_6_0" index="0" disallow="tram rail_urban rail rail_electric rail_fast ship" speed="6.52" length="9.02" shape="325.60,98.61 327.93,98.18 329.57,97.04 330.53,95.20 330.81,92.64"/>
    </edge>
    <edge id=":11601420881_7" function="internal">
        <lane id=":11601420881_7_0" index="0" disallow="tram rail_urban rail rail_electric rail_fast ship" speed="8.43" length="14.50" shape="325.60,98.61 329.68,99.01 332.75,100.47 334.83,102.99 335.90,106.57"/>
    </edge>
    <edge id=":11601420881_8" function="internal">
        <lane id=":11601420881_8_0" index="0" disallow="tram rail_urban rail rail_electric rail_fast ship" speed="3.65" length="4.67" shape="325.60,98.61 326.83,99.38 327.25,100.16 326.87,100.98 325.69,101.81"/>
    </edge>
    <edge id=":11601420886_0" function="internal">
        <lane id=":11601420886_0_0" index="0" disallow="tram rail_urban rail rail_electric rail_fast ship" speed="3.65" length="4.67" shape="264.51,121.45 263.44,122.42 262.57,122.62 261.89,122.04 261.40,120.68"/>
    </edge>
    <edge id=":11622305335_0" function="internal">
        <lane id=":11622305335_0_0" index="0" disallow="tram rail_urban rail rail_electric rail_fast ship" speed="3.65" length="4.67" shape="525.81,186.78 525.32,188.14 524.64,188.72 523.77,188.52 522.70,187.54"/>
    </edge>
    <edge id=":11622320580_0" function="internal">
        <lane id=":11622320580_0_0" index="0" disallow="tram rail_urban rail rail_electric rail_fast ship" speed="13.89" length="14.40" shape="570.20,217.55 556.05,220.24"/>
    </edge>
    <edge id=":11622320580_1" function="internal">
        <lane id=":11622320580_1_0" index="0" disallow="tram rail_urban rail rail_electric rail_fast ship" speed="8.02" length="4.06" shape="570.20,217.55 566.32,217.73 566.16,217.67"/>
    </edge>
    <edge id=":11622320580_2" function="internal">
        <lane id=":11622320580_2_0" index="0" disallow="tram rail_urban rail rail_electric rail_fast ship" speed="3.65" length="1.44" shape="570.20,217.55 568.87,216.99"/>
    </edge>
    <edge id=":11622320580_9" function="internal">
        <lane id=":11622320580_9_0" index="0" disallow="tram rail_urban rail rail_electric rail_fast ship" speed="8.02" length="10.14" shape="566.16,217.67 563.31,216.62 561.17,214.23 559.89,210.55"/>
    </edge>
    <edge id=":11622320580_10" function="internal">
        <lane id=":11622320580_10_0" index="0" disallow="tram rail_urban rail rail_electric rail_fast ship" speed="3.65" length="3.23" shape="568.87,216.99 568.33,216.28 568.57,215.42 569.60,214.41"/>
    </edge>
    <edge id=":11622320580_3" function="internal">
        <lane id=":11622320580_3_0" index="0" disallow="tram rail_urban rail rail_electric rail_fast ship" speed="6.53" length="9.06" shape="563.03,209.93 563.85,212.28 565.21,213.81 567.13,214.52 569.60,214.41"/>
    </edge>
    <edge id=":11622320580_4" function="internal">
        <lane id=":11622320580_4_0" index="0" disallow="tram rail_urban rail rail_electric rail_fast ship" speed="7.99" length="14.21" shape="563.03,209.93 563.23,213.83 562.13,216.84 559.74,218.98 556.05,220.24"/>
    </edge>
    <edge id=":11622320580_5" function="internal">
        <lane id=":11622320580_5_0" index="0" disallow="tram rail_urban rail rail_electric rail_fast ship" speed="3.65" length="4.67" shape="563.03,209.93 562.48,211.26 561.77,211.81 560.91,211.57 559.89,210.55"/>
    </edge>
    <edge id=":11622320580_6" function="internal">
        <lane id=":11622320580_6_0" index="0" disallow="tram rail_urban rail rail_electric rail_fast ship" speed="6.50" length="9.03" shape="555.46,217.10 557.80,216.30 559.32,214.94 560.02,213.02 559.89,210.55"/>
    </edge>
    <edge id=":11622320580_7" function="internal">
        <lane id=":11622320580_7_0" index="0" disallow="tram rail_urban rail rail_electric rail_fast ship" speed="13.89" length="14.40" shape="555.46,217.10 569.60,214.41"/>
    </edge>
    <edge id=":11622320580_8" function="internal">
        <lane id=":11622320580_8_0" index="0" disallow="tram rail_urban rail rail_electric rail_fast ship" speed="3.65" length="1.44" shape="555.46,217.10 556.79,217.66"/>
    </edge>
    <edge id=":11622320580_11" function="internal">
        <lane id=":11622320580_11_0" index="0" disallow="tram rail_urban rail rail_electric rail_fast ship" speed="3.65" length="3.23" shape="556.79,217.66 557.33,218.37 557.08,219.23 556.05,220.24"/>
    </edge>
    <edge id=":11622320581_0" function="internal">
        <lane id=":11622320581_0_0" index="0" disallow="tram rail_urban rail rail_electric rail_fast ship" speed="3.65" length="4.67" shape="555.50,188.10 556.06,186.77 556.76,186.22 557.63,186.46 558.64,187.48"/>
    </edge>
    <edge id=":11622320582_0" function="internal">
        <lane id=":11622320582_0_0" index="0" disallow="tram rail_urban rail rail_electric rail_fast ship" speed="13.89" length="14.48" shape="618.98,208.68 604.70,211.09"/>
    </edge>
    <edge id=":11622320582_1" function="internal">
        <lane id=":11622320582_1_0" index="0" disallow="tram rail_urban rail rail_electric rail_fast ship" speed="8.58" length="3.84" shape="618.98,208.68 615.31,208.73 615.16,208.67"/>
    </edge>
    <edge id=":11622320582_2" function="internal">
        <lane id=":11622320582_2_0" index="0" disallow="tram rail_urban rail rail_electric rail_fast ship" speed="3.65" length="1.44" shape="618.98,208.68 617.66,208.09"/>
    </edge>
    <edge id=":11622320582_9" function="internal">
        <lane id=":11622320582_9_0" index="0" disallow="tram rail_urban rail rail_electric rail_fast ship" speed="8.58" length="10.64" shape="615.16,208.67 612.27,207.53 609.86,205.08 608.08,201.39"/>
    </edge>
    <edge id=":11622320582_10" function="internal">
        <lane id=":11622320582_10_0" index="0" disallow="tram rail_urban rail rail_electric rail_fast ship" speed="3.65" length="3.23" shape="617.66,208.09 617.14,207.37 617.40,206.52 618.45,205.53"/>
    </edge>
    <edge id=":11622320582_3" function="internal">
        <lane id=":11622320582_3_0" index="0" disallow="tram rail_urban rail rail_electric rail_fast ship" speed="7.19" length="9.90" shape="611.11,200.36 612.34,202.96 613.97,204.68 616.01,205.54 618.45,205.53"/>
    </edge>
    <edge id=":11622320582_4" function="internal">
        <lane id=":11622320582_4_0" index="0" disallow="tram rail_urban rail rail_electric rail_fast ship" speed="7.74" length="14.84" shape="611.11,200.36 611.87,204.46 611.05,207.61 608.66,209.82 604.70,211.09"/>
    </edge>
    <edge id=":11622320582_5" function="internal">
        <lane id=":11622320582_5_0" index="0" disallow="tram rail_urban rail rail_electric rail_fast ship" speed="3.65" length="4.67" shape="611.11,200.36 610.74,201.76 610.11,202.39 609.22,202.27 608.08,201.39"/>
    </edge>
    <edge id=":11622320582_6" function="internal">
        <lane id=":11622320582_6_0" index="0" disallow="tram rail_urban rail rail_electric rail_fast ship" speed="6.19" length="9.05" shape="604.17,207.93 606.58,207.16 608.04,205.81 608.54,203.89 608.08,201.39"/>
    </edge>
    <edge id=":11622320582_7" function="internal">
        <lane id=":11622320582_7_0" index="0" disallow="tram rail_urban rail rail_electric rail_fast ship" speed="13.89" length="14.48" shape="604.17,207.93 618.45,205.53"/>
    </edge>
    <edge id=":11622320582_8" function="internal">
        <lane id=":11622320582_8_0" index="0" disallow="tram rail_urban rail rail_electric rail_fast ship" speed="3.65" length="1.44" shape="604.17,207.93 605.48,208.52"/>
    </edge>
    <edge id=":11622320582_11" function="internal">
        <lane id=":11622320582_11_0" index="0" disallow="tram rail_urban rail rail_electric rail_fast ship" speed="3.65" length="3.23" shape="605.48,208.52 606.01,209.24 605.75,210.10 604.70,211.09"/>
    </edge>
    <edge id=":11622320583_0" function="internal">
        <lane id=":11622320583_0_0" index="0" disallow="tram rail_urban rail rail_electric rail_fast ship" speed="3.65" length="4.67" shape="594.66,161.70 595.03,160.31 595.66,159.68 596.55,159.80 597.69,160.68"/>
    </edge>
    <edge id=":11622343188_0" function="internal">
        <lane id=":11622343188_0_0" index="0" disallow="tram rail_urban rail rail_electric rail_fast ship" speed="13.89" length="14.42" shape="325.15,409.60 310.86,411.54"/>
    </edge>
    <edge id=":11622343188_1" function="internal">
        <lane id=":11622343188_1_0" index="0" disallow="tram rail_urban rail rail_electric rail_fast ship" speed="7.88" length="4.13" shape="325.15,409.60 321.14,409.57 321.03,409.52"/>
    </edge>
    <edge id=":11622343188_2" function="internal">
        <lane id=":11622343188_2_0" index="0" disallow="tram rail_urban rail rail_electric rail_fast ship" speed="3.65" length="1.44" shape="325.15,409.60 323.85,408.97"/>
    </edge>
    <edge id=":11622343188_9" function="internal">
        <lane id=":11622343188_9_0" index="0" disallow="tram rail_urban rail rail_electric rail_fast ship" speed="7.88" length="10.34" shape="321.03,409.52 318.20,408.25 316.32,405.62 315.50,401.70"/>
    </edge>
    <edge id=":11622343188_10" function="internal">
        <lane id=":11622343188_10_0" index="0" disallow="tram rail_urban rail rail_electric rail_fast ship" speed="3.65" length="3.23" shape="323.85,408.97 323.35,408.23 323.64,407.39 324.72,406.43"/>
    </edge>
    <edge id=":11622343188_3" function="internal">